73401
  -OEChem-04162601283D

 52 55  0     1  0  0  0  0  0999 V2000
   -3.0714   -1.3733    1.2394 O   0  0  0  0  0  0  0  0  0  0  0  0
    0.6501   -0.0026   -1.9812 O   0  0  0  0  0  0  0  0  0  0  0  0
   -4.6228    0.1614    1.9372 O   0  0  0  0  0  0  0  0  0  0  0  0
    6.2827    0.8346    0.2245 O   0  0  0  0  0  0  0  0  0  0  0  0
   -0.8069    0.5934   -0.0654 C   0  0  1  0  0  0  0  0  0  0  0  0
   -2.0911   -0.1685   -0.5202 C   0  0  2  0  0  0  0  0  0  0  0  0
    0.4419   -0.2559   -0.5782 C   0  0  1  0  0  0  0  0  0  0  0  0
   -3.4306    0.4939   -0.1676 C   0  0  2  0  0  0  0  0  0  0  0  0
   -2.2258   -1.5518    0.0923 C   0  0  1  0  0  0  0  0  0  0  0  0
    0.2837   -1.8159   -0.3701 C   0  0  1  0  0  0  0  0  0  0  0  0
   -0.8491    2.0240   -0.7014 C   0  0  0  0  0  0  0  0  0  0  0  0
   -0.9173   -2.2155    0.5034 C   0  0  0  0  0  0  0  0  0  0  0  0
   -3.3260    2.0177   -0.0092 C   0  0  0  0  0  0  0  0  0  0  0  0
   -2.2535    2.6049   -0.9185 C   0  0  0  0  0  0  0  0  0  0  0  0
   -0.7132    0.8031    1.4775 C   0  0  0  0  0  0  0  0  0  0  0  0
    1.7653    0.2057    0.0605 C   0  0  0  0  0  0  0  0  0  0  0  0
   -3.7930   -0.2142    1.1226 C   0  0  0  0  0  0  0  0  0  0  0  0
   -4.5146    0.1422   -1.2031 C   0  0  0  0  0  0  0  0  0  0  0  0
    0.2485   -2.6239   -1.6786 C   0  0  0  0  0  0  0  0  0  0  0  0
    2.9520   -0.4697   -0.6120 C   0  0  0  0  0  0  0  0  0  0  0  0
    4.2511   -0.0204    0.0064 C   0  0  0  0  0  0  0  0  0  0  0  0
    4.5996   -0.1388    1.3519 C   0  0  0  0  0  0  0  0  0  0  0  0
    5.2792    0.5680   -0.6519 C   0  0  0  0  0  0  0  0  0  0  0  0
    5.8612    0.4015    1.4417 C   0  0  0  0  0  0  0  0  0  0  0  0
   -2.0300   -0.2787   -1.6112 H   0  0  0  0  0  0  0  0  0  0  0  0
   -2.7576   -2.2201   -0.5969 H   0  0  0  0  0  0  0  0  0  0  0  0
    1.1412   -2.2000    0.1943 H   0  0  0  0  0  0  0  0  0  0  0  0
   -0.3485    2.0516   -1.6750 H   0  0  0  0  0  0  0  0  0  0  0  0
   -0.2740    2.7243   -0.0819 H   0  0  0  0  0  0  0  0  0  0  0  0
   -1.0574   -3.3051    0.4778 H   0  0  0  0  0  0  0  0  0  0  0  0
   -0.6956   -2.0240    1.5581 H   0  0  0  0  0  0  0  0  0  0  0  0
   -3.1265    2.3089    1.0272 H   0  0  0  0  0  0  0  0  0  0  0  0
   -4.2879    2.4911   -0.2454 H   0  0  0  0  0  0  0  0  0  0  0  0
   -2.5458    2.4310   -1.9624 H   0  0  0  0  0  0  0  0  0  0  0  0
   -2.2178    3.6937   -0.7949 H   0  0  0  0  0  0  0  0  0  0  0  0
   -0.4920   -0.1074    2.0316 H   0  0  0  0  0  0  0  0  0  0  0  0
    0.0867    1.5094    1.7308 H   0  0  0  0  0  0  0  0  0  0  0  0
   -1.6214    1.2172    1.9145 H   0  0  0  0  0  0  0  0  0  0  0  0
    1.7696   -0.0137    1.1343 H   0  0  0  0  0  0  0  0  0  0  0  0
    1.8759    1.2925   -0.0504 H   0  0  0  0  0  0  0  0  0  0  0  0
   -4.6425   -0.9402   -1.3143 H   0  0  0  0  0  0  0  0  0  0  0  0
   -5.4892    0.5448   -0.9030 H   0  0  0  0  0  0  0  0  0  0  0  0
   -4.2685    0.5534   -2.1881 H   0  0  0  0  0  0  0  0  0  0  0  0
   -0.6243   -2.3712   -2.2890 H   0  0  0  0  0  0  0  0  0  0  0  0
    1.1523   -2.4559   -2.2732 H   0  0  0  0  0  0  0  0  0  0  0  0
    0.2024   -3.6982   -1.4673 H   0  0  0  0  0  0  0  0  0  0  0  0
   -0.1749   -0.1830   -2.4594 H   0  0  0  0  0  0  0  0  0  0  0  0
    2.9861   -0.2332   -1.6825 H   0  0  0  0  0  0  0  0  0  0  0  0
    2.9269   -1.5606   -0.5345 H   0  0  0  0  0  0  0  0  0  0  0  0
    4.0285   -0.5601    2.1665 H   0  0  0  0  0  0  0  0  0  0  0  0
    5.4634    0.8574   -1.6763 H   0  0  0  0  0  0  0  0  0  0  0  0
    6.5575    0.5438    2.2552 H   0  0  0  0  0  0  0  0  0  0  0  0
  1  9  1  0  0  0  0
  1 17  1  0  0  0  0
  2  7  1  0  0  0  0
  2 47  1  0  0  0  0
  3 17  2  0  0  0  0
  4 23  1  0  0  0  0
  4 24  1  0  0  0  0
  5  6  1  0  0  0  0
  5  7  1  0  0  0  0
  5 11  1  0  0  0  0
  5 15  1  0  0  0  0
  6  8  1  0  0  0  0
  6  9  1  0  0  0  0
  6 25  1  0  0  0  0
  7 10  1  0  0  0  0
  7 16  1  0  0  0  0
  8 13  1  0  0  0  0
  8 17  1  0  0  0  0
  8 18  1  0  0  0  0
  9 12  1  0  0  0  0
  9 26  1  0  0  0  0
 10 12  1  0  0  0  0
 10 19  1  0  0  0  0
 10 27  1  0  0  0  0
 11 14  1  0  0  0  0
 11 28  1  0  0  0  0
 11 29  1  0  0  0  0
 12 30  1  0  0  0  0
 12 31  1  0  0  0  0
 13 14  1  0  0  0  0
 13 32  1  0  0  0  0
 13 33  1  0  0  0  0
 14 34  1  0  0  0  0
 14 35  1  0  0  0  0
 15 36  1  0  0  0  0
 15 37  1  0  0  0  0
 15 38  1  0  0  0  0
 16 20  1  0  0  0  0
 16 39  1  0  0  0  0
 16 40  1  0  0  0  0
 18 41  1  0  0  0  0
 18 42  1  0  0  0  0
 18 43  1  0  0  0  0
 19 44  1  0  0  0  0
 19 45  1  0  0  0  0
 19 46  1  0  0  0  0
 20 21  1  0  0  0  0
 20 48  1  0  0  0  0
 20 49  1  0  0  0  0
 21 22  1  0  0  0  0
 21 23  2  0  0  0  0
 22 24  2  0  0  0  0
 22 50  1  0  0  0  0
 23 51  1  0  0  0  0
 24 52  1  0  0  0  0
M  END
> <PUBCHEM_COMPOUND_CID>
73401

> <PUBCHEM_CONFORMER_RMSD>
0.8

> <PUBCHEM_CONFORMER_DIVERSEORDER>
1
4
5
3
2

> <PUBCHEM_MMFF94_PARTIAL_CHARGES>
17
1 -0.43
17 0.66
2 -0.68
20 0.18
21 -0.18
22 -0.15
23 -0.01
24 -0.01
3 -0.57
4 -0.28
47 0.4
50 0.15
51 0.15
52 0.15
7 0.28
8 0.06
9 0.28

> <PUBCHEM_EFFECTIVE_ROTOR_COUNT>
4.4

> <PUBCHEM_PHARMACOPHORE_FEATURES>
8
1 2 acceptor
1 2 donor
1 3 acceptor
1 4 acceptor
5 1 6 8 9 17 rings
5 4 21 22 23 24 rings
6 5 6 7 9 10 12 rings
6 5 6 8 11 13 14 rings

> <PUBCHEM_HEAVY_ATOM_COUNT>
24

> <PUBCHEM_ATOM_DEF_STEREO_COUNT>
6

> <PUBCHEM_ATOM_UDEF_STEREO_COUNT>
0

> <PUBCHEM_BOND_DEF_STEREO_COUNT>
0

> <PUBCHEM_BOND_UDEF_STEREO_COUNT>
0

> <PUBCHEM_ISOTOPIC_ATOM_COUNT>
0

> <PUBCHEM_COMPONENT_COUNT>
1

> <PUBCHEM_CACTVS_TAUTO_COUNT>
1

> <PUBCHEM_CONFORMER_ID>
00011EB900000001

> <PUBCHEM_MMFF94_ENERGY>
90.5189

> <PUBCHEM_FEATURE_SELFOVERLAP>
40.836

> <PUBCHEM_SHAPE_FINGERPRINT>
10006869 2 16698945392646169049
10319926 262 18262794061324487442
10675989 125 16891435669224416589
10906281 52 18335428907251165645
11132069 177 18341899588434563574
11315181 36 17603586335862612172
11578080 2 17985273967498442625
12035758 1 18341619251835105441
12107183 9 17246654976993431296
12236239 1 17095240319729540184
12390115 104 18199480873791670944
12403259 415 18270972228394809588
12403814 3 18409164432761767869
12596602 18 16950565501995073104
12633257 1 18271250511873585944
12892183 10 18040434352534001538
12969540 114 17489577957565782268
13004483 165 17339262838149047334
13140716 1 18193570071569380353
13288520 33 15068624902828939185
13540713 4 18048611330584275959
13583140 156 17676195892678466556
14142880 1 18270971124620577673
14420673 8 17682106683213581970
15042514 8 18264211477071821899
15788980 27 14707209903077059964
16728300 4 17095792257476973651
16945 1 18338815459062268615
17980427 23 18113340782286028965
1813 80 14923948908120919526
19377110 9 17386277801482615888
19489759 90 18410567379760950648
19784866 170 18411707568966042782
19784866 240 14346087446722588835
200 152 14562525189679614904
20600515 1 18270699656569194909
20645477 56 18201433705996332588
21033648 29 17988065739227328584
21637258 2 15574997342133199859
22182313 1 18191885422213635871
22224240 67 18202006538516820235
23227448 37 18128527348990328788
23379529 103 11100151047952958393
23402539 116 18334569162013959087
23559900 14 18333729148179075380
2748010 2 18047487634064215055
296302 2 16917356904850725767
3286 77 14852184973744316207
3633792 109 16879325854535190343
5104073 3 18191590752575035842
59755656 520 16702303464334232390
633830 44 16773805749144459102
9862522 239 18410845538854149622
9981440 41 18187925019916650627

> <PUBCHEM_SHAPE_MULTIPOLES>
470.43
11.05
2.2
1.53
16.5
0.35
-0.18
-3.47
-3.38
-1.61
0.66
-0.37
0.16
0.7

> <PUBCHEM_SHAPE_SELFOVERLAP>
1017.179

> <PUBCHEM_SHAPE_VOLUME>
258.6

> <PUBCHEM_COORDINATE_TYPE>
2
5
10

$$$$
